*SPEF "ieee 1481-1999"
*DESIGN "tt_um_power_test"
*DATE "11:11:11 Fri 11 11, 1111"
*VENDOR "OpenRCX"
*PROGRAM "Parallel Extraction"
*VERSION "1.0"
*DESIGN_FLOW "NAME_SCOPE LOCAL" "PIN_CAP NONE"
*DIVIDER /
*DELIMITER :
*BUS_DELIMITER []
*T_UNIT 1 NS
*C_UNIT 1 PF
*R_UNIT 1 OHM
*L_UNIT 1 HENRY

*NAME_MAP
*1 clk
*2 ena
*3 rst_n
*4 ui_in[0]
*5 ui_in[1]
*6 ui_in[2]
*7 ui_in[3]
*8 ui_in[4]
*9 ui_in[5]
*10 ui_in[6]
*11 ui_in[7]
*12 uio_in[0]
*13 uio_in[1]
*14 uio_in[2]
*15 uio_in[3]
*16 uio_in[4]
*17 uio_in[5]
*18 uio_in[6]
*19 uio_in[7]
*20 net15
*21 net16
*22 net17
*23 net18
*24 net19
*25 net20
*26 net21
*27 net22
*28 net23
*29 net24
*30 net25
*31 net26
*32 net27
*33 net28
*34 net29
*35 net30
*36 uo_out[0]
*37 uo_out[1]
*38 uo_out[2]
*39 uo_out[3]
*40 uo_out[4]
*41 uo_out[5]
*42 uo_out[6]
*43 uo_out[7]
*46 _00_
*47 _01_
*48 _02_
*49 _03_
*50 _04_
*51 _05_
*52 _06_
*53 _07_
*54 _08_
*55 _09_
*56 _10_
*57 _11_
*58 _12_
*59 _13_
*60 _14_
*61 _15_
*62 _16_
*63 _17_
*64 _18_
*65 _19_
*66 _20_
*67 _21_
*68 _22_
*69 _23_
*70 _24_
*71 _25_
*72 _26_
*73 _27_
*74 _28_
*75 _29_
*76 _30_
*77 net1
*78 net10
*79 net11
*80 net12
*81 net13
*82 net14
*83 net2
*84 net3
*85 net4
*86 net5
*87 net6
*88 net7
*89 net8
*90 net9
*91 FILLER_0_109
*92 FILLER_0_113
*93 FILLER_0_125
*94 FILLER_0_137
*95 FILLER_0_141
*96 FILLER_0_15
*97 FILLER_0_153
*98 FILLER_0_165
*99 FILLER_0_169
*100 FILLER_0_181
*101 FILLER_0_193
*102 FILLER_0_197
*103 FILLER_0_209
*104 FILLER_0_221
*105 FILLER_0_225
*106 FILLER_0_237
*107 FILLER_0_249
*108 FILLER_0_253
*109 FILLER_0_265
*110 FILLER_0_27
*111 FILLER_0_277
*112 FILLER_0_281
*113 FILLER_0_29
*114 FILLER_0_293
*115 FILLER_0_3
*116 FILLER_0_305
*117 FILLER_0_309
*118 FILLER_0_321
*119 FILLER_0_333
*120 FILLER_0_337
*121 FILLER_0_41
*122 FILLER_0_53
*123 FILLER_0_57
*124 FILLER_0_69
*125 FILLER_0_81
*126 FILLER_0_85
*127 FILLER_0_97
*128 FILLER_10_109
*129 FILLER_10_121
*130 FILLER_10_133
*131 FILLER_10_139
*132 FILLER_10_141
*133 FILLER_10_15
*134 FILLER_10_153
*135 FILLER_10_165
*136 FILLER_10_177
*137 FILLER_10_189
*138 FILLER_10_195
*139 FILLER_10_197
*140 FILLER_10_209
*141 FILLER_10_221
*142 FILLER_10_233
*143 FILLER_10_245
*144 FILLER_10_251
*145 FILLER_10_253
*146 FILLER_10_265
*147 FILLER_10_27
*148 FILLER_10_277
*149 FILLER_10_289
*150 FILLER_10_29
*151 FILLER_10_3
*152 FILLER_10_301
*153 FILLER_10_307
*154 FILLER_10_309
*155 FILLER_10_321
*156 FILLER_10_333
*157 FILLER_10_337
*158 FILLER_10_41
*159 FILLER_10_53
*160 FILLER_10_65
*161 FILLER_10_77
*162 FILLER_10_83
*163 FILLER_10_85
*164 FILLER_10_97
*165 FILLER_11_105
*166 FILLER_11_111
*167 FILLER_11_113
*168 FILLER_11_125
*169 FILLER_11_137
*170 FILLER_11_149
*171 FILLER_11_15
*172 FILLER_11_161
*173 FILLER_11_167
*174 FILLER_11_169
*175 FILLER_11_181
*176 FILLER_11_193
*177 FILLER_11_205
*178 FILLER_11_217
*179 FILLER_11_223
*180 FILLER_11_225
*181 FILLER_11_237
*182 FILLER_11_249
*183 FILLER_11_261
*184 FILLER_11_27
*185 FILLER_11_273
*186 FILLER_11_279
*187 FILLER_11_281
*188 FILLER_11_293
*189 FILLER_11_3
*190 FILLER_11_305
*191 FILLER_11_317
*192 FILLER_11_329
*193 FILLER_11_335
*194 FILLER_11_337
*195 FILLER_11_39
*196 FILLER_11_51
*197 FILLER_11_55
*198 FILLER_11_57
*199 FILLER_11_69
*200 FILLER_11_81
*201 FILLER_11_93
*202 FILLER_12_109
*203 FILLER_12_121
*204 FILLER_12_133
*205 FILLER_12_139
*206 FILLER_12_141
*207 FILLER_12_15
*208 FILLER_12_153
*209 FILLER_12_165
*210 FILLER_12_177
*211 FILLER_12_189
*212 FILLER_12_195
*213 FILLER_12_197
*214 FILLER_12_209
*215 FILLER_12_221
*216 FILLER_12_233
*217 FILLER_12_245
*218 FILLER_12_251
*219 FILLER_12_253
*220 FILLER_12_265
*221 FILLER_12_27
*222 FILLER_12_277
*223 FILLER_12_289
*224 FILLER_12_29
*225 FILLER_12_3
*226 FILLER_12_301
*227 FILLER_12_307
*228 FILLER_12_309
*229 FILLER_12_321
*230 FILLER_12_333
*231 FILLER_12_337
*232 FILLER_12_41
*233 FILLER_12_53
*234 FILLER_12_65
*235 FILLER_12_77
*236 FILLER_12_83
*237 FILLER_12_85
*238 FILLER_12_97
*239 FILLER_13_105
*240 FILLER_13_111
*241 FILLER_13_113
*242 FILLER_13_125
*243 FILLER_13_137
*244 FILLER_13_149
*245 FILLER_13_15
*246 FILLER_13_161
*247 FILLER_13_167
*248 FILLER_13_169
*249 FILLER_13_181
*250 FILLER_13_193
*251 FILLER_13_205
*252 FILLER_13_217
*253 FILLER_13_223
*254 FILLER_13_225
*255 FILLER_13_237
*256 FILLER_13_249
*257 FILLER_13_261
*258 FILLER_13_27
*259 FILLER_13_273
*260 FILLER_13_279
*261 FILLER_13_281
*262 FILLER_13_293
*263 FILLER_13_3
*264 FILLER_13_305
*265 FILLER_13_317
*266 FILLER_13_329
*267 FILLER_13_335
*268 FILLER_13_337
*269 FILLER_13_39
*270 FILLER_13_51
*271 FILLER_13_55
*272 FILLER_13_57
*273 FILLER_13_69
*274 FILLER_13_81
*275 FILLER_13_93
*276 FILLER_14_109
*277 FILLER_14_121
*278 FILLER_14_133
*279 FILLER_14_139
*280 FILLER_14_141
*281 FILLER_14_15
*282 FILLER_14_153
*283 FILLER_14_165
*284 FILLER_14_177
*285 FILLER_14_189
*286 FILLER_14_195
*287 FILLER_14_197
*288 FILLER_14_209
*289 FILLER_14_221
*290 FILLER_14_233
*291 FILLER_14_245
*292 FILLER_14_251
*293 FILLER_14_253
*294 FILLER_14_265
*295 FILLER_14_27
*296 FILLER_14_277
*297 FILLER_14_289
*298 FILLER_14_29
*299 FILLER_14_3
*300 FILLER_14_301
*301 FILLER_14_307
*302 FILLER_14_309
*303 FILLER_14_321
*304 FILLER_14_333
*305 FILLER_14_337
*306 FILLER_14_41
*307 FILLER_14_53
*308 FILLER_14_65
*309 FILLER_14_77
*310 FILLER_14_83
*311 FILLER_14_85
*312 FILLER_14_97
*313 FILLER_15_105
*314 FILLER_15_111
*315 FILLER_15_113
*316 FILLER_15_125
*317 FILLER_15_137
*318 FILLER_15_149
*319 FILLER_15_15
*320 FILLER_15_161
*321 FILLER_15_167
*322 FILLER_15_169
*323 FILLER_15_181
*324 FILLER_15_193
*325 FILLER_15_205
*326 FILLER_15_217
*327 FILLER_15_223
*328 FILLER_15_225
*329 FILLER_15_237
*330 FILLER_15_249
*331 FILLER_15_261
*332 FILLER_15_27
*333 FILLER_15_273
*334 FILLER_15_279
*335 FILLER_15_281
*336 FILLER_15_293
*337 FILLER_15_3
*338 FILLER_15_305
*339 FILLER_15_317
*340 FILLER_15_329
*341 FILLER_15_335
*342 FILLER_15_337
*343 FILLER_15_39
*344 FILLER_15_51
*345 FILLER_15_55
*346 FILLER_15_57
*347 FILLER_15_69
*348 FILLER_15_81
*349 FILLER_15_93
*350 FILLER_16_109
*351 FILLER_16_121
*352 FILLER_16_133
*353 FILLER_16_139
*354 FILLER_16_141
*355 FILLER_16_15
*356 FILLER_16_153
*357 FILLER_16_165
*358 FILLER_16_177
*359 FILLER_16_189
*360 FILLER_16_195
*361 FILLER_16_197
*362 FILLER_16_209
*363 FILLER_16_221
*364 FILLER_16_233
*365 FILLER_16_245
*366 FILLER_16_251
*367 FILLER_16_253
*368 FILLER_16_265
*369 FILLER_16_27
*370 FILLER_16_277
*371 FILLER_16_289
*372 FILLER_16_29
*373 FILLER_16_3
*374 FILLER_16_301
*375 FILLER_16_307
*376 FILLER_16_309
*377 FILLER_16_321
*378 FILLER_16_333
*379 FILLER_16_337
*380 FILLER_16_41
*381 FILLER_16_53
*382 FILLER_16_65
*383 FILLER_16_77
*384 FILLER_16_83
*385 FILLER_16_85
*386 FILLER_16_97
*387 FILLER_17_105
*388 FILLER_17_111
*389 FILLER_17_113
*390 FILLER_17_125
*391 FILLER_17_137
*392 FILLER_17_149
*393 FILLER_17_15
*394 FILLER_17_161
*395 FILLER_17_167
*396 FILLER_17_169
*397 FILLER_17_181
*398 FILLER_17_193
*399 FILLER_17_205
*400 FILLER_17_217
*401 FILLER_17_223
*402 FILLER_17_225
*403 FILLER_17_237
*404 FILLER_17_249
*405 FILLER_17_261
*406 FILLER_17_27
*407 FILLER_17_273
*408 FILLER_17_279
*409 FILLER_17_281
*410 FILLER_17_293
*411 FILLER_17_3
*412 FILLER_17_305
*413 FILLER_17_317
*414 FILLER_17_329
*415 FILLER_17_335
*416 FILLER_17_337
*417 FILLER_17_39
*418 FILLER_17_51
*419 FILLER_17_55
*420 FILLER_17_57
*421 FILLER_17_69
*422 FILLER_17_81
*423 FILLER_17_93
*424 FILLER_18_109
*425 FILLER_18_121
*426 FILLER_18_133
*427 FILLER_18_139
*428 FILLER_18_141
*429 FILLER_18_15
*430 FILLER_18_153
*431 FILLER_18_165
*432 FILLER_18_177
*433 FILLER_18_189
*434 FILLER_18_195
*435 FILLER_18_197
*436 FILLER_18_209
*437 FILLER_18_221
*438 FILLER_18_233
*439 FILLER_18_245
*440 FILLER_18_251
*441 FILLER_18_253
*442 FILLER_18_265
*443 FILLER_18_27
*444 FILLER_18_277
*445 FILLER_18_289
*446 FILLER_18_29
*447 FILLER_18_3
*448 FILLER_18_301
*449 FILLER_18_307
*450 FILLER_18_309
*451 FILLER_18_321
*452 FILLER_18_333
*453 FILLER_18_337
*454 FILLER_18_41
*455 FILLER_18_53
*456 FILLER_18_65
*457 FILLER_18_77
*458 FILLER_18_83
*459 FILLER_18_85
*460 FILLER_18_97
*461 FILLER_19_105
*462 FILLER_19_111
*463 FILLER_19_113
*464 FILLER_19_125
*465 FILLER_19_137
*466 FILLER_19_149
*467 FILLER_19_15
*468 FILLER_19_161
*469 FILLER_19_167
*470 FILLER_19_169
*471 FILLER_19_181
*472 FILLER_19_193
*473 FILLER_19_205
*474 FILLER_19_217
*475 FILLER_19_223
*476 FILLER_19_225
*477 FILLER_19_237
*478 FILLER_19_249
*479 FILLER_19_261
*480 FILLER_19_27
*481 FILLER_19_273
*482 FILLER_19_279
*483 FILLER_19_281
*484 FILLER_19_293
*485 FILLER_19_3
*486 FILLER_19_305
*487 FILLER_19_317
*488 FILLER_19_329
*489 FILLER_19_335
*490 FILLER_19_337
*491 FILLER_19_39
*492 FILLER_19_51
*493 FILLER_19_55
*494 FILLER_19_57
*495 FILLER_19_69
*496 FILLER_19_81
*497 FILLER_19_93
*498 FILLER_1_105
*499 FILLER_1_111
*500 FILLER_1_113
*501 FILLER_1_125
*502 FILLER_1_137
*503 FILLER_1_149
*504 FILLER_1_15
*505 FILLER_1_161
*506 FILLER_1_167
*507 FILLER_1_169
*508 FILLER_1_181
*509 FILLER_1_193
*510 FILLER_1_205
*511 FILLER_1_217
*512 FILLER_1_223
*513 FILLER_1_225
*514 FILLER_1_237
*515 FILLER_1_249
*516 FILLER_1_261
*517 FILLER_1_27
*518 FILLER_1_273
*519 FILLER_1_279
*520 FILLER_1_281
*521 FILLER_1_293
*522 FILLER_1_3
*523 FILLER_1_305
*524 FILLER_1_317
*525 FILLER_1_329
*526 FILLER_1_335
*527 FILLER_1_337
*528 FILLER_1_39
*529 FILLER_1_51
*530 FILLER_1_55
*531 FILLER_1_57
*532 FILLER_1_69
*533 FILLER_1_81
*534 FILLER_1_93
*535 FILLER_20_109
*536 FILLER_20_121
*537 FILLER_20_133
*538 FILLER_20_139
*539 FILLER_20_141
*540 FILLER_20_15
*541 FILLER_20_153
*542 FILLER_20_165
*543 FILLER_20_177
*544 FILLER_20_189
*545 FILLER_20_195
*546 FILLER_20_197
*547 FILLER_20_209
*548 FILLER_20_221
*549 FILLER_20_228
*550 FILLER_20_240
*551 FILLER_20_253
*552 FILLER_20_265
*553 FILLER_20_27
*554 FILLER_20_277
*555 FILLER_20_289
*556 FILLER_20_29
*557 FILLER_20_3
*558 FILLER_20_301
*559 FILLER_20_307
*560 FILLER_20_309
*561 FILLER_20_321
*562 FILLER_20_333
*563 FILLER_20_337
*564 FILLER_20_41
*565 FILLER_20_53
*566 FILLER_20_65
*567 FILLER_20_77
*568 FILLER_20_83
*569 FILLER_20_85
*570 FILLER_20_97
*571 FILLER_21_105
*572 FILLER_21_111
*573 FILLER_21_113
*574 FILLER_21_125
*575 FILLER_21_137
*576 FILLER_21_149
*577 FILLER_21_15
*578 FILLER_21_161
*579 FILLER_21_167
*580 FILLER_21_169
*581 FILLER_21_181
*582 FILLER_21_193
*583 FILLER_21_205
*584 FILLER_21_217
*585 FILLER_21_223
*586 FILLER_21_225
*587 FILLER_21_237
*588 FILLER_21_245
*589 FILLER_21_254
*590 FILLER_21_266
*591 FILLER_21_27
*592 FILLER_21_278
*593 FILLER_21_281
*594 FILLER_21_293
*595 FILLER_21_3
*596 FILLER_21_305
*597 FILLER_21_317
*598 FILLER_21_329
*599 FILLER_21_335
*600 FILLER_21_337
*601 FILLER_21_39
*602 FILLER_21_51
*603 FILLER_21_55
*604 FILLER_21_57
*605 FILLER_21_69
*606 FILLER_21_81
*607 FILLER_21_93
*608 FILLER_22_109
*609 FILLER_22_121
*610 FILLER_22_133
*611 FILLER_22_139
*612 FILLER_22_141
*613 FILLER_22_15
*614 FILLER_22_153
*615 FILLER_22_165
*616 FILLER_22_177
*617 FILLER_22_189
*618 FILLER_22_195
*619 FILLER_22_197
*620 FILLER_22_209
*621 FILLER_22_221
*622 FILLER_22_233
*623 FILLER_22_245
*624 FILLER_22_251
*625 FILLER_22_253
*626 FILLER_22_265
*627 FILLER_22_27
*628 FILLER_22_277
*629 FILLER_22_289
*630 FILLER_22_29
*631 FILLER_22_3
*632 FILLER_22_301
*633 FILLER_22_307
*634 FILLER_22_309
*635 FILLER_22_321
*636 FILLER_22_333
*637 FILLER_22_337
*638 FILLER_22_41
*639 FILLER_22_53
*640 FILLER_22_65
*641 FILLER_22_77
*642 FILLER_22_83
*643 FILLER_22_85
*644 FILLER_22_97
*645 FILLER_23_105
*646 FILLER_23_111
*647 FILLER_23_113
*648 FILLER_23_125
*649 FILLER_23_137
*650 FILLER_23_149
*651 FILLER_23_15
*652 FILLER_23_161
*653 FILLER_23_167
*654 FILLER_23_169
*655 FILLER_23_181
*656 FILLER_23_193
*657 FILLER_23_205
*658 FILLER_23_217
*659 FILLER_23_223
*660 FILLER_23_225
*661 FILLER_23_237
*662 FILLER_23_249
*663 FILLER_23_255
*664 FILLER_23_261
*665 FILLER_23_27
*666 FILLER_23_270
*667 FILLER_23_278
*668 FILLER_23_281
*669 FILLER_23_293
*670 FILLER_23_3
*671 FILLER_23_305
*672 FILLER_23_317
*673 FILLER_23_329
*674 FILLER_23_335
*675 FILLER_23_337
*676 FILLER_23_39
*677 FILLER_23_51
*678 FILLER_23_55
*679 FILLER_23_57
*680 FILLER_23_69
*681 FILLER_23_81
*682 FILLER_23_93
*683 FILLER_24_109
*684 FILLER_24_121
*685 FILLER_24_133
*686 FILLER_24_139
*687 FILLER_24_141
*688 FILLER_24_15
*689 FILLER_24_153
*690 FILLER_24_165
*691 FILLER_24_177
*692 FILLER_24_189
*693 FILLER_24_195
*694 FILLER_24_197
*695 FILLER_24_205
*696 FILLER_24_212
*697 FILLER_24_224
*698 FILLER_24_236
*699 FILLER_24_248
*700 FILLER_24_253
*701 FILLER_24_265
*702 FILLER_24_27
*703 FILLER_24_277
*704 FILLER_24_289
*705 FILLER_24_29
*706 FILLER_24_3
*707 FILLER_24_301
*708 FILLER_24_307
*709 FILLER_24_309
*710 FILLER_24_321
*711 FILLER_24_333
*712 FILLER_24_337
*713 FILLER_24_41
*714 FILLER_24_53
*715 FILLER_24_65
*716 FILLER_24_77
*717 FILLER_24_83
*718 FILLER_24_85
*719 FILLER_24_97
*720 FILLER_25_105
*721 FILLER_25_111
*722 FILLER_25_113
*723 FILLER_25_125
*724 FILLER_25_137
*725 FILLER_25_149
*726 FILLER_25_15
*727 FILLER_25_161
*728 FILLER_25_167
*729 FILLER_25_169
*730 FILLER_25_181
*731 FILLER_25_193
*732 FILLER_25_205
*733 FILLER_25_217
*734 FILLER_25_223
*735 FILLER_25_225
*736 FILLER_25_237
*737 FILLER_25_249
*738 FILLER_25_255
*739 FILLER_25_266
*740 FILLER_25_27
*741 FILLER_25_278
*742 FILLER_25_281
*743 FILLER_25_293
*744 FILLER_25_3
*745 FILLER_25_305
*746 FILLER_25_317
*747 FILLER_25_329
*748 FILLER_25_335
*749 FILLER_25_337
*750 FILLER_25_39
*751 FILLER_25_51
*752 FILLER_25_55
*753 FILLER_25_57
*754 FILLER_25_69
*755 FILLER_25_81
*756 FILLER_25_93
*757 FILLER_26_109
*758 FILLER_26_121
*759 FILLER_26_133
*760 FILLER_26_139
*761 FILLER_26_141
*762 FILLER_26_15
*763 FILLER_26_153
*764 FILLER_26_165
*765 FILLER_26_177
*766 FILLER_26_189
*767 FILLER_26_195
*768 FILLER_26_197
*769 FILLER_26_209
*770 FILLER_26_221
*771 FILLER_26_233
*772 FILLER_26_245
*773 FILLER_26_251
*774 FILLER_26_253
*775 FILLER_26_265
*776 FILLER_26_27
*777 FILLER_26_277
*778 FILLER_26_289
*779 FILLER_26_29
*780 FILLER_26_3
*781 FILLER_26_301
*782 FILLER_26_307
*783 FILLER_26_309
*784 FILLER_26_321
*785 FILLER_26_333
*786 FILLER_26_337
*787 FILLER_26_41
*788 FILLER_26_53
*789 FILLER_26_65
*790 FILLER_26_77
*791 FILLER_26_83
*792 FILLER_26_85
*793 FILLER_26_97
*794 FILLER_27_105
*795 FILLER_27_111
*796 FILLER_27_113
*797 FILLER_27_125
*798 FILLER_27_137
*799 FILLER_27_149
*800 FILLER_27_15
*801 FILLER_27_161
*802 FILLER_27_167
*803 FILLER_27_169
*804 FILLER_27_187
*805 FILLER_27_199
*806 FILLER_27_211
*807 FILLER_27_223
*808 FILLER_27_225
*809 FILLER_27_237
*810 FILLER_27_249
*811 FILLER_27_261
*812 FILLER_27_27
*813 FILLER_27_273
*814 FILLER_27_279
*815 FILLER_27_281
*816 FILLER_27_293
*817 FILLER_27_3
*818 FILLER_27_305
*819 FILLER_27_317
*820 FILLER_27_329
*821 FILLER_27_335
*822 FILLER_27_337
*823 FILLER_27_39
*824 FILLER_27_51
*825 FILLER_27_55
*826 FILLER_27_57
*827 FILLER_27_69
*828 FILLER_27_81
*829 FILLER_27_93
*830 FILLER_28_109
*831 FILLER_28_121
*832 FILLER_28_133
*833 FILLER_28_139
*834 FILLER_28_141
*835 FILLER_28_15
*836 FILLER_28_153
*837 FILLER_28_165
*838 FILLER_28_177
*839 FILLER_28_189
*840 FILLER_28_195
*841 FILLER_28_197
*842 FILLER_28_209
*843 FILLER_28_221
*844 FILLER_28_233
*845 FILLER_28_239
*846 FILLER_28_245
*847 FILLER_28_251
*848 FILLER_28_253
*849 FILLER_28_258
*850 FILLER_28_27
*851 FILLER_28_270
*852 FILLER_28_282
*853 FILLER_28_29
*854 FILLER_28_294
*855 FILLER_28_3
*856 FILLER_28_306
*857 FILLER_28_309
*858 FILLER_28_321
*859 FILLER_28_333
*860 FILLER_28_337
*861 FILLER_28_41
*862 FILLER_28_53
*863 FILLER_28_65
*864 FILLER_28_77
*865 FILLER_28_83
*866 FILLER_28_85
*867 FILLER_28_97
*868 FILLER_29_105
*869 FILLER_29_111
*870 FILLER_29_113
*871 FILLER_29_125
*872 FILLER_29_137
*873 FILLER_29_149
*874 FILLER_29_15
*875 FILLER_29_161
*876 FILLER_29_167
*877 FILLER_29_169
*878 FILLER_29_181
*879 FILLER_29_193
*880 FILLER_29_205
*881 FILLER_29_217
*882 FILLER_29_223
*883 FILLER_29_225
*884 FILLER_29_248
*885 FILLER_29_260
*886 FILLER_29_27
*887 FILLER_29_272
*888 FILLER_29_281
*889 FILLER_29_293
*890 FILLER_29_3
*891 FILLER_29_305
*892 FILLER_29_317
*893 FILLER_29_329
*894 FILLER_29_335
*895 FILLER_29_337
*896 FILLER_29_39
*897 FILLER_29_51
*898 FILLER_29_55
*899 FILLER_29_57
*900 FILLER_29_69
*901 FILLER_29_81
*902 FILLER_29_93
*903 FILLER_2_109
*904 FILLER_2_121
*905 FILLER_2_133
*906 FILLER_2_139
*907 FILLER_2_141
*908 FILLER_2_15
*909 FILLER_2_153
*910 FILLER_2_165
*911 FILLER_2_177
*912 FILLER_2_189
*913 FILLER_2_195
*914 FILLER_2_197
*915 FILLER_2_209
*916 FILLER_2_221
*917 FILLER_2_233
*918 FILLER_2_245
*919 FILLER_2_251
*920 FILLER_2_253
*921 FILLER_2_265
*922 FILLER_2_27
*923 FILLER_2_277
*924 FILLER_2_289
*925 FILLER_2_29
*926 FILLER_2_3
*927 FILLER_2_301
*928 FILLER_2_307
*929 FILLER_2_309
*930 FILLER_2_321
*931 FILLER_2_333
*932 FILLER_2_337
*933 FILLER_2_41
*934 FILLER_2_53
*935 FILLER_2_65
*936 FILLER_2_77
*937 FILLER_2_83
*938 FILLER_2_85
*939 FILLER_2_97
*940 FILLER_30_109
*941 FILLER_30_121
*942 FILLER_30_133
*943 FILLER_30_139
*944 FILLER_30_141
*945 FILLER_30_15
*946 FILLER_30_153
*947 FILLER_30_165
*948 FILLER_30_177
*949 FILLER_30_189
*950 FILLER_30_195
*951 FILLER_30_197
*952 FILLER_30_209
*953 FILLER_30_221
*954 FILLER_30_233
*955 FILLER_30_241
*956 FILLER_30_247
*957 FILLER_30_251
*958 FILLER_30_253
*959 FILLER_30_265
*960 FILLER_30_27
*961 FILLER_30_277
*962 FILLER_30_289
*963 FILLER_30_29
*964 FILLER_30_3
*965 FILLER_30_301
*966 FILLER_30_307
*967 FILLER_30_309
*968 FILLER_30_321
*969 FILLER_30_333
*970 FILLER_30_337
*971 FILLER_30_41
*972 FILLER_30_53
*973 FILLER_30_65
*974 FILLER_30_77
*975 FILLER_30_83
*976 FILLER_30_85
*977 FILLER_30_97
*978 FILLER_31_105
*979 FILLER_31_111
*980 FILLER_31_113
*981 FILLER_31_125
*982 FILLER_31_137
*983 FILLER_31_149
*984 FILLER_31_15
*985 FILLER_31_161
*986 FILLER_31_167
*987 FILLER_31_169
*988 FILLER_31_181
*989 FILLER_31_193
*990 FILLER_31_205
*991 FILLER_31_217
*992 FILLER_31_223
*993 FILLER_31_225
*994 FILLER_31_237
*995 FILLER_31_246
*996 FILLER_31_258
*997 FILLER_31_27
*998 FILLER_31_270
*999 FILLER_31_278
*1000 FILLER_31_281
*1001 FILLER_31_293
*1002 FILLER_31_3
*1003 FILLER_31_305
*1004 FILLER_31_317
*1005 FILLER_31_329
*1006 FILLER_31_335
*1007 FILLER_31_337
*1008 FILLER_31_39
*1009 FILLER_31_51
*1010 FILLER_31_55
*1011 FILLER_31_57
*1012 FILLER_31_69
*1013 FILLER_31_81
*1014 FILLER_31_93
*1015 FILLER_32_109
*1016 FILLER_32_121
*1017 FILLER_32_133
*1018 FILLER_32_139
*1019 FILLER_32_141
*1020 FILLER_32_15
*1021 FILLER_32_175
*1022 FILLER_32_179
*1023 FILLER_32_189
*1024 FILLER_32_195
*1025 FILLER_32_197
*1026 FILLER_32_209
*1027 FILLER_32_221
*1028 FILLER_32_227
*1029 FILLER_32_231
*1030 FILLER_32_238
*1031 FILLER_32_250
*1032 FILLER_32_253
*1033 FILLER_32_262
*1034 FILLER_32_27
*1035 FILLER_32_274
*1036 FILLER_32_286
*1037 FILLER_32_29
*1038 FILLER_32_298
*1039 FILLER_32_3
*1040 FILLER_32_306
*1041 FILLER_32_309
*1042 FILLER_32_321
*1043 FILLER_32_333
*1044 FILLER_32_337
*1045 FILLER_32_41
*1046 FILLER_32_53
*1047 FILLER_32_65
*1048 FILLER_32_77
*1049 FILLER_32_83
*1050 FILLER_32_85
*1051 FILLER_32_97
*1052 FILLER_33_100
*1053 FILLER_33_113
*1054 FILLER_33_120
*1055 FILLER_33_132
*1056 FILLER_33_144
*1057 FILLER_33_15
*1058 FILLER_33_156
*1059 FILLER_33_169
*1060 FILLER_33_193
*1061 FILLER_33_201
*1062 FILLER_33_207
*1063 FILLER_33_216
*1064 FILLER_33_225
*1065 FILLER_33_230
*1066 FILLER_33_241
*1067 FILLER_33_249
*1068 FILLER_33_257
*1069 FILLER_33_269
*1070 FILLER_33_27
*1071 FILLER_33_277
*1072 FILLER_33_281
*1073 FILLER_33_293
*1074 FILLER_33_3
*1075 FILLER_33_305
*1076 FILLER_33_317
*1077 FILLER_33_329
*1078 FILLER_33_335
*1079 FILLER_33_337
*1080 FILLER_33_39
*1081 FILLER_33_51
*1082 FILLER_33_55
*1083 FILLER_33_57
*1084 FILLER_33_69
*1085 FILLER_33_81
*1086 FILLER_33_88
*1087 FILLER_34_106
*1088 FILLER_34_115
*1089 FILLER_34_123
*1090 FILLER_34_130
*1091 FILLER_34_138
*1092 FILLER_34_141
*1093 FILLER_34_153
*1094 FILLER_34_165
*1095 FILLER_34_177
*1096 FILLER_34_186
*1097 FILLER_34_194
*1098 FILLER_34_197
*1099 FILLER_34_20
*1100 FILLER_34_204
*1101 FILLER_34_212
*1102 FILLER_34_217
*1103 FILLER_34_226
*1104 FILLER_34_235
*1105 FILLER_34_244
*1106 FILLER_34_253
*1107 FILLER_34_258
*1108 FILLER_34_265
*1109 FILLER_34_277
*1110 FILLER_34_289
*1111 FILLER_34_29
*1112 FILLER_34_3
*1113 FILLER_34_304
*1114 FILLER_34_309
*1115 FILLER_34_321
*1116 FILLER_34_333
*1117 FILLER_34_337
*1118 FILLER_34_41
*1119 FILLER_34_53
*1120 FILLER_34_64
*1121 FILLER_34_68
*1122 FILLER_34_72
*1123 FILLER_34_76
*1124 FILLER_34_8
*1125 FILLER_34_80
*1126 FILLER_34_85
*1127 FILLER_34_92
*1128 FILLER_34_99
*1129 FILLER_35_107
*1130 FILLER_35_111
*1131 FILLER_35_113
*1132 FILLER_35_12
*1133 FILLER_35_138
*1134 FILLER_35_141
*1135 FILLER_35_153
*1136 FILLER_35_165
*1137 FILLER_35_169
*1138 FILLER_35_181
*1139 FILLER_35_187
*1140 FILLER_35_19
*1141 FILLER_35_194
*1142 FILLER_35_197
*1143 FILLER_35_212
*1144 FILLER_35_222
*1145 FILLER_35_225
*1146 FILLER_35_232
*1147 FILLER_35_236
*1148 FILLER_35_243
*1149 FILLER_35_250
*1150 FILLER_35_253
*1151 FILLER_35_26
*1152 FILLER_35_262
*1153 FILLER_35_269
*1154 FILLER_35_276
*1155 FILLER_35_281
*1156 FILLER_35_286
*1157 FILLER_35_29
*1158 FILLER_35_293
*1159 FILLER_35_3
*1160 FILLER_35_300
*1161 FILLER_35_309
*1162 FILLER_35_314
*1163 FILLER_35_321
*1164 FILLER_35_333
*1165 FILLER_35_337
*1166 FILLER_35_40
*1167 FILLER_35_47
*1168 FILLER_35_54
*1169 FILLER_35_57
*1170 FILLER_35_81
*1171 FILLER_35_85
*1172 FILLER_35_91
*1173 FILLER_3_105
*1174 FILLER_3_111
*1175 FILLER_3_113
*1176 FILLER_3_125
*1177 FILLER_3_137
*1178 FILLER_3_149
*1179 FILLER_3_15
*1180 FILLER_3_161
*1181 FILLER_3_167
*1182 FILLER_3_169
*1183 FILLER_3_181
*1184 FILLER_3_193
*1185 FILLER_3_205
*1186 FILLER_3_217
*1187 FILLER_3_223
*1188 FILLER_3_225
*1189 FILLER_3_237
*1190 FILLER_3_249
*1191 FILLER_3_261
*1192 FILLER_3_27
*1193 FILLER_3_273
*1194 FILLER_3_279
*1195 FILLER_3_281
*1196 FILLER_3_293
*1197 FILLER_3_3
*1198 FILLER_3_305
*1199 FILLER_3_317
*1200 FILLER_3_329
*1201 FILLER_3_335
*1202 FILLER_3_337
*1203 FILLER_3_39
*1204 FILLER_3_51
*1205 FILLER_3_55
*1206 FILLER_3_57
*1207 FILLER_3_69
*1208 FILLER_3_81
*1209 FILLER_3_93
*1210 FILLER_4_109
*1211 FILLER_4_121
*1212 FILLER_4_133
*1213 FILLER_4_139
*1214 FILLER_4_141
*1215 FILLER_4_15
*1216 FILLER_4_153
*1217 FILLER_4_165
*1218 FILLER_4_177
*1219 FILLER_4_189
*1220 FILLER_4_195
*1221 FILLER_4_197
*1222 FILLER_4_209
*1223 FILLER_4_221
*1224 FILLER_4_233
*1225 FILLER_4_245
*1226 FILLER_4_251
*1227 FILLER_4_253
*1228 FILLER_4_265
*1229 FILLER_4_27
*1230 FILLER_4_277
*1231 FILLER_4_289
*1232 FILLER_4_29
*1233 FILLER_4_3
*1234 FILLER_4_301
*1235 FILLER_4_307
*1236 FILLER_4_309
*1237 FILLER_4_321
*1238 FILLER_4_333
*1239 FILLER_4_337
*1240 FILLER_4_41
*1241 FILLER_4_53
*1242 FILLER_4_65
*1243 FILLER_4_77
*1244 FILLER_4_83
*1245 FILLER_4_85
*1246 FILLER_4_97
*1247 FILLER_5_105
*1248 FILLER_5_111
*1249 FILLER_5_113
*1250 FILLER_5_125
*1251 FILLER_5_137
*1252 FILLER_5_149
*1253 FILLER_5_15
*1254 FILLER_5_161
*1255 FILLER_5_167
*1256 FILLER_5_169
*1257 FILLER_5_181
*1258 FILLER_5_193
*1259 FILLER_5_205
*1260 FILLER_5_217
*1261 FILLER_5_223
*1262 FILLER_5_225
*1263 FILLER_5_237
*1264 FILLER_5_249
*1265 FILLER_5_261
*1266 FILLER_5_27
*1267 FILLER_5_273
*1268 FILLER_5_279
*1269 FILLER_5_281
*1270 FILLER_5_293
*1271 FILLER_5_3
*1272 FILLER_5_305
*1273 FILLER_5_317
*1274 FILLER_5_329
*1275 FILLER_5_335
*1276 FILLER_5_337
*1277 FILLER_5_39
*1278 FILLER_5_51
*1279 FILLER_5_55
*1280 FILLER_5_57
*1281 FILLER_5_69
*1282 FILLER_5_81
*1283 FILLER_5_93
*1284 FILLER_6_109
*1285 FILLER_6_121
*1286 FILLER_6_133
*1287 FILLER_6_139
*1288 FILLER_6_141
*1289 FILLER_6_15
*1290 FILLER_6_153
*1291 FILLER_6_165
*1292 FILLER_6_177
*1293 FILLER_6_189
*1294 FILLER_6_195
*1295 FILLER_6_197
*1296 FILLER_6_209
*1297 FILLER_6_221
*1298 FILLER_6_233
*1299 FILLER_6_245
*1300 FILLER_6_251
*1301 FILLER_6_253
*1302 FILLER_6_265
*1303 FILLER_6_27
*1304 FILLER_6_277
*1305 FILLER_6_289
*1306 FILLER_6_29
*1307 FILLER_6_3
*1308 FILLER_6_301
*1309 FILLER_6_307
*1310 FILLER_6_309
*1311 FILLER_6_321
*1312 FILLER_6_333
*1313 FILLER_6_337
*1314 FILLER_6_41
*1315 FILLER_6_53
*1316 FILLER_6_65
*1317 FILLER_6_77
*1318 FILLER_6_83
*1319 FILLER_6_85
*1320 FILLER_6_97
*1321 FILLER_7_105
*1322 FILLER_7_111
*1323 FILLER_7_113
*1324 FILLER_7_125
*1325 FILLER_7_137
*1326 FILLER_7_149
*1327 FILLER_7_15
*1328 FILLER_7_161
*1329 FILLER_7_167
*1330 FILLER_7_169
*1331 FILLER_7_181
*1332 FILLER_7_193
*1333 FILLER_7_205
*1334 FILLER_7_217
*1335 FILLER_7_223
*1336 FILLER_7_225
*1337 FILLER_7_237
*1338 FILLER_7_249
*1339 FILLER_7_261
*1340 FILLER_7_27
*1341 FILLER_7_273
*1342 FILLER_7_279
*1343 FILLER_7_281
*1344 FILLER_7_293
*1345 FILLER_7_3
*1346 FILLER_7_305
*1347 FILLER_7_317
*1348 FILLER_7_329
*1349 FILLER_7_335
*1350 FILLER_7_337
*1351 FILLER_7_39
*1352 FILLER_7_51
*1353 FILLER_7_55
*1354 FILLER_7_57
*1355 FILLER_7_69
*1356 FILLER_7_81
*1357 FILLER_7_93
*1358 FILLER_8_109
*1359 FILLER_8_121
*1360 FILLER_8_133
*1361 FILLER_8_139
*1362 FILLER_8_141
*1363 FILLER_8_15
*1364 FILLER_8_153
*1365 FILLER_8_165
*1366 FILLER_8_177
*1367 FILLER_8_189
*1368 FILLER_8_195
*1369 FILLER_8_197
*1370 FILLER_8_209
*1371 FILLER_8_221
*1372 FILLER_8_233
*1373 FILLER_8_245
*1374 FILLER_8_251
*1375 FILLER_8_253
*1376 FILLER_8_265
*1377 FILLER_8_27
*1378 FILLER_8_277
*1379 FILLER_8_289
*1380 FILLER_8_29
*1381 FILLER_8_3
*1382 FILLER_8_301
*1383 FILLER_8_307
*1384 FILLER_8_309
*1385 FILLER_8_321
*1386 FILLER_8_333
*1387 FILLER_8_337
*1388 FILLER_8_41
*1389 FILLER_8_53
*1390 FILLER_8_65
*1391 FILLER_8_77
*1392 FILLER_8_83
*1393 FILLER_8_85
*1394 FILLER_8_97
*1395 FILLER_9_105
*1396 FILLER_9_111
*1397 FILLER_9_113
*1398 FILLER_9_125
*1399 FILLER_9_137
*1400 FILLER_9_149
*1401 FILLER_9_15
*1402 FILLER_9_161
*1403 FILLER_9_167
*1404 FILLER_9_169
*1405 FILLER_9_181
*1406 FILLER_9_193
*1407 FILLER_9_205
*1408 FILLER_9_217
*1409 FILLER_9_223
*1410 FILLER_9_225
*1411 FILLER_9_237
*1412 FILLER_9_249
*1413 FILLER_9_261
*1414 FILLER_9_27
*1415 FILLER_9_273
*1416 FILLER_9_279
*1417 FILLER_9_281
*1418 FILLER_9_293
*1419 FILLER_9_3
*1420 FILLER_9_305
*1421 FILLER_9_317
*1422 FILLER_9_329
*1423 FILLER_9_335
*1424 FILLER_9_337
*1425 FILLER_9_39
*1426 FILLER_9_51
*1427 FILLER_9_55
*1428 FILLER_9_57
*1429 FILLER_9_69
*1430 FILLER_9_81
*1431 FILLER_9_93
*1432 PHY_0
*1433 PHY_1
*1434 PHY_10
*1435 PHY_11
*1436 PHY_12
*1437 PHY_13
*1438 PHY_14
*1439 PHY_15
*1440 PHY_16
*1441 PHY_17
*1442 PHY_18
*1443 PHY_19
*1444 PHY_2
*1445 PHY_20
*1446 PHY_21
*1447 PHY_22
*1448 PHY_23
*1449 PHY_24
*1450 PHY_25
*1451 PHY_26
*1452 PHY_27
*1453 PHY_28
*1454 PHY_29
*1455 PHY_3
*1456 PHY_30
*1457 PHY_31
*1458 PHY_32
*1459 PHY_33
*1460 PHY_34
*1461 PHY_35
*1462 PHY_36
*1463 PHY_37
*1464 PHY_38
*1465 PHY_39
*1466 PHY_4
*1467 PHY_40
*1468 PHY_41
*1469 PHY_42
*1470 PHY_43
*1471 PHY_44
*1472 PHY_45
*1473 PHY_46
*1474 PHY_47
*1475 PHY_48
*1476 PHY_49
*1477 PHY_5
*1478 PHY_50
*1479 PHY_51
*1480 PHY_52
*1481 PHY_53
*1482 PHY_54
*1483 PHY_55
*1484 PHY_56
*1485 PHY_57
*1486 PHY_58
*1487 PHY_59
*1488 PHY_6
*1489 PHY_60
*1490 PHY_61
*1491 PHY_62
*1492 PHY_63
*1493 PHY_64
*1494 PHY_65
*1495 PHY_66
*1496 PHY_67
*1497 PHY_68
*1498 PHY_69
*1499 PHY_7
*1500 PHY_70
*1501 PHY_71
*1502 PHY_8
*1503 PHY_9
*1504 TAP_100
*1505 TAP_101
*1506 TAP_102
*1507 TAP_103
*1508 TAP_104
*1509 TAP_105
*1510 TAP_106
*1511 TAP_107
*1512 TAP_108
*1513 TAP_109
*1514 TAP_110
*1515 TAP_111
*1516 TAP_112
*1517 TAP_113
*1518 TAP_114
*1519 TAP_115
*1520 TAP_116
*1521 TAP_117
*1522 TAP_118
*1523 TAP_119
*1524 TAP_120
*1525 TAP_121
*1526 TAP_122
*1527 TAP_123
*1528 TAP_124
*1529 TAP_125
*1530 TAP_126
*1531 TAP_127
*1532 TAP_128
*1533 TAP_129
*1534 TAP_130
*1535 TAP_131
*1536 TAP_132
*1537 TAP_133
*1538 TAP_134
*1539 TAP_135
*1540 TAP_136
*1541 TAP_137
*1542 TAP_138
*1543 TAP_139
*1544 TAP_140
*1545 TAP_141
*1546 TAP_142
*1547 TAP_143
*1548 TAP_144
*1549 TAP_145
*1550 TAP_146
*1551 TAP_147
*1552 TAP_148
*1553 TAP_149
*1554 TAP_150
*1555 TAP_151
*1556 TAP_152
*1557 TAP_153
*1558 TAP_154
*1559 TAP_155
*1560 TAP_156
*1561 TAP_157
*1562 TAP_158
*1563 TAP_159
*1564 TAP_160
*1565 TAP_161
*1566 TAP_162
*1567 TAP_163
*1568 TAP_164
*1569 TAP_165
*1570 TAP_166
*1571 TAP_167
*1572 TAP_168
*1573 TAP_169
*1574 TAP_170
*1575 TAP_171
*1576 TAP_172
*1577 TAP_173
*1578 TAP_174
*1579 TAP_175
*1580 TAP_176
*1581 TAP_177
*1582 TAP_178
*1583 TAP_179
*1584 TAP_180
*1585 TAP_181
*1586 TAP_182
*1587 TAP_183
*1588 TAP_184
*1589 TAP_185
*1590 TAP_186
*1591 TAP_187
*1592 TAP_188
*1593 TAP_189
*1594 TAP_190
*1595 TAP_191
*1596 TAP_192
*1597 TAP_193
*1598 TAP_194
*1599 TAP_195
*1600 TAP_196
*1601 TAP_197
*1602 TAP_198
*1603 TAP_199
*1604 TAP_200
*1605 TAP_201
*1606 TAP_202
*1607 TAP_203
*1608 TAP_204
*1609 TAP_205
*1610 TAP_206
*1611 TAP_207
*1612 TAP_208
*1613 TAP_209
*1614 TAP_210
*1615 TAP_211
*1616 TAP_212
*1617 TAP_213
*1618 TAP_214
*1619 TAP_215
*1620 TAP_216
*1621 TAP_217
*1622 TAP_218
*1623 TAP_219
*1624 TAP_220
*1625 TAP_221
*1626 TAP_222
*1627 TAP_223
*1628 TAP_224
*1629 TAP_225
*1630 TAP_226
*1631 TAP_227
*1632 TAP_228
*1633 TAP_229
*1634 TAP_230
*1635 TAP_231
*1636 TAP_232
*1637 TAP_233
*1638 TAP_234
*1639 TAP_235
*1640 TAP_236
*1641 TAP_237
*1642 TAP_238
*1643 TAP_239
*1644 TAP_240
*1645 TAP_241
*1646 TAP_242
*1647 TAP_243
*1648 TAP_244
*1649 TAP_245
*1650 TAP_246
*1651 TAP_247
*1652 TAP_248
*1653 TAP_249
*1654 TAP_250
*1655 TAP_251
*1656 TAP_252
*1657 TAP_253
*1658 TAP_254
*1659 TAP_255
*1660 TAP_256
*1661 TAP_257
*1662 TAP_258
*1663 TAP_259
*1664 TAP_260
*1665 TAP_261
*1666 TAP_262
*1667 TAP_263
*1668 TAP_264
*1669 TAP_265
*1670 TAP_266
*1671 TAP_267
*1672 TAP_268
*1673 TAP_269
*1674 TAP_270
*1675 TAP_271
*1676 TAP_272
*1677 TAP_273
*1678 TAP_274
*1679 TAP_275
*1680 TAP_276
*1681 TAP_277
*1682 TAP_278
*1683 TAP_279
*1684 TAP_280
*1685 TAP_281
*1686 TAP_282
*1687 TAP_283
*1688 TAP_284
*1689 TAP_285
*1690 TAP_286
*1691 TAP_287
*1692 TAP_288
*1693 TAP_289
*1694 TAP_290
*1695 TAP_291
*1696 TAP_292
*1697 TAP_293
*1698 TAP_294
*1699 TAP_295